
#======================================================================
# CRYSTAL DATA
#----------------------------------------------------------------------
data_VESTA_phase_1

_chemical_name_common                  'MIL125-Ti-NH2                         '
_cell_length_a                         18.673000
_cell_length_b                         18.673000
_cell_length_c                         18.138000
_cell_angle_alpha                      90.000000
_cell_angle_beta                       90.000000
_cell_angle_gamma                      90.000000
_cell_volume                           6324.375088
_space_group_name_H-M_alt              'P 1'
_space_group_IT_number                 1

loop_
_space_group_symop_operation_xyz
   'x, y, z'

loop_
   _atom_site_label
   _atom_site_occupancy
   _atom_site_fract_x
   _atom_site_fract_y
   _atom_site_fract_z
   _atom_site_adp_type
   _atom_site_U_iso_or_equiv
   _atom_site_type_symbol
   _atom_site_charge
   O1         1.0     0.862306     0.766385     0.585641    Uiso  ? O	-0.606832
   O2         1.0     0.230670     0.844903     0.580618    Uiso  ? O	-0.624968
   O3         1.0     0.158606     0.230863     0.427312    Uiso  ? O	-0.635577
   O4         1.0     0.766028     0.139466     0.417992    Uiso  ? O	-0.613306
   O5         1.0     0.937883     0.687166     0.489133    Uiso  ? O	-0.629447
   O6         1.0     0.315246     0.938578     0.509618    Uiso  ? O	-0.605175
   O7         1.0     0.001478     0.802752     0.568604    Uiso  ? O	-0.962187
   O8         1.0     0.191024    -0.000730     0.570463    Uiso  ? O	-0.901002
   O9         1.0     0.886490     0.889444     0.501156    Uiso  ? O	-0.940520
   O10        1.0     0.362306     0.266385     0.085641    Uiso  ? O	-0.606834
   O11        1.0     0.730670     0.344903     0.080618    Uiso  ? O	-0.624968
   O12        1.0     0.658606     0.730862     0.927312    Uiso  ? O	-0.635579
   O13        1.0     0.266028     0.639466     0.917992    Uiso  ? O	-0.613305
   O14        1.0     0.437883     0.187166     0.989133    Uiso  ? O	-0.629447
   O15        1.0     0.815246     0.438578     0.009618    Uiso  ? O	-0.605175
   O16        1.0     0.501478     0.302752     0.068604    Uiso  ? O	-0.962195
   O17        1.0     0.691024     0.499270     0.070463    Uiso  ? O	-0.901002
   O18        1.0     0.386490     0.389444     0.001156    Uiso  ? O	-0.940519
   O19        1.0     0.137633     0.233654     0.586048    Uiso  ? O	-0.599096
   O20        1.0     0.769643     0.154324     0.579670    Uiso  ? O	-0.632407
   O21        1.0     0.843605     0.769340     0.426439    Uiso  ? O	-0.640297
   O22        1.0     0.235491     0.858760     0.417893    Uiso  ? O	-0.604598
   O23        1.0     0.062441     0.315005     0.487466    Uiso  ? O	-0.614055
   O24        1.0     0.687053     0.061598     0.509156    Uiso  ? O	-0.625092
   O25        1.0    -0.000393     0.198326     0.568556    Uiso  ? O	-0.963821
   O26        1.0     0.808483     0.999187     0.571127    Uiso  ? O	-0.898745
   O27        1.0     0.112594     0.111355     0.500491    Uiso  ? O	-0.941778
   O28        1.0     0.637633     0.733654     0.086048    Uiso  ? O	-0.599088
   O29        1.0     0.269643     0.654324     0.079670    Uiso  ? O	-0.632405
   O30        1.0     0.343605     0.269340     0.926439    Uiso  ? O	-0.640298
   O31        1.0     0.735491     0.358760     0.917893    Uiso  ? O	-0.604598
   O32        1.0     0.562441     0.815005     0.987466    Uiso  ? O	-0.614055
   O33        1.0     0.187053     0.561598     0.009156    Uiso  ? O	-0.625091
   O34        1.0     0.499607     0.698326     0.068556    Uiso  ? O	-0.963839
   O35        1.0     0.308483     0.499187     0.071127    Uiso  ? O	-0.898746
   O36        1.0     0.612594     0.611355     0.000491    Uiso  ? O	-0.941789
   O37        1.0     0.152561     0.770051     0.416396    Uiso  ? O	-0.622991
   O38        1.0     0.764641     0.860665     0.417085    Uiso  ? O	-0.614267
   O39        1.0     0.857076     0.237863     0.575547    Uiso  ? O	-0.616982
   O40        1.0     0.229718     0.154766     0.579700    Uiso  ? O	-0.626567
   O41        1.0     0.058948     0.684614     0.491342    Uiso  ? O	-0.622019
   O42        1.0     0.684135     0.940580     0.509346    Uiso  ? O	-0.621705
   O43        1.0     0.998887     0.810875     0.429777    Uiso  ? O	-0.907763
   O44        1.0     0.802613     0.000070     0.432555    Uiso  ? O	-0.955417
   O45        1.0     0.113440     0.886183     0.499894    Uiso  ? O	-0.945458
   O46        1.0     0.652561     0.270051     0.916396    Uiso  ? O	-0.622990
   O47        1.0     0.264641     0.360665     0.917085    Uiso  ? O	-0.614269
   O48        1.0     0.357076     0.737863     0.075547    Uiso  ? O	-0.616982
   O49        1.0     0.729718     0.654766     0.079700    Uiso  ? O	-0.626565
   O50        1.0     0.558948     0.184614     0.991342    Uiso  ? O	-0.622019
   O51        1.0     0.184135     0.440580     0.009346    Uiso  ? O	-0.621705
   O52        1.0     0.498887     0.310875     0.929778    Uiso  ? O	-0.907763
   O53        1.0     0.302613     0.500070     0.932555    Uiso  ? O	-0.955417
   O54        1.0     0.613440     0.386183    -0.000106    Uiso  ? O	-0.945458
   O55        1.0     0.848717     0.228240     0.416315    Uiso  ? O	-0.624236
   O56        1.0     0.235385     0.137872     0.416776    Uiso  ? O	-0.611571
   O57        1.0     0.143054     0.761567     0.576201    Uiso  ? O	-0.616805
   O58        1.0     0.768991     0.843741     0.579123    Uiso  ? O	-0.626203
   O59        1.0     0.941031     0.314244     0.491314    Uiso  ? O	-0.623028
   O60        1.0     0.314418     0.060031     0.510456    Uiso  ? O	-0.616935
   O61        1.0     0.002020     0.189880     0.429864    Uiso  ? O	-0.907243
   O62        1.0     0.198305     0.998845     0.432401    Uiso  ? O	-0.958468
   O63        1.0     0.888884     0.112118     0.501396    Uiso  ? O	-0.945689
   O64        1.0     0.348717     0.728240     0.916315    Uiso  ? O	-0.624235
   O65        1.0     0.735385     0.637872     0.916776    Uiso  ? O	-0.611569
   O66        1.0     0.643054     0.261567     0.076201    Uiso  ? O	-0.616805
   O67        1.0     0.268991     0.343741     0.079123    Uiso  ? O	-0.626204
   O68        1.0     0.441031     0.814244     0.991314    Uiso  ? O	-0.623028
   O69        1.0     0.814418     0.560031     0.010456    Uiso  ? O	-0.616935
   O70        1.0     0.502020     0.689880     0.929864    Uiso  ? O	-0.907250
   O71        1.0     0.698305     0.498845     0.932401    Uiso  ? O	-0.958468
   O72        1.0     0.388884     0.612118     0.001396    Uiso  ? O	-0.945688
   C1         1.0     0.724526     0.805982     0.717809    Uiso  ? C	-0.209190
   C2         1.0     0.185600     0.704417     0.714346    Uiso  ? C	0.312104
   C3         1.0     0.286282     0.186568     0.284220    Uiso  ? C	-0.068855
   C4         1.0     0.801708     0.278441     0.282786    Uiso  ? C	-0.136685
   C5         1.0     0.930513     0.535614     0.498085    Uiso  ? C	0.305413
   C6         1.0     0.463824     0.935125     0.508273    Uiso  ? C	-0.154216
   C7         1.0     0.805383     0.794171     0.610896    Uiso  ? C	0.644733
   C8         1.0     0.778830     0.768281     0.683116    Uiso  ? C	-0.002808
   C9         1.0     0.196245     0.791402     0.607989    Uiso  ? C	0.652125
   C10        1.0     0.219776     0.764068     0.679614    Uiso  ? C	-0.164766
   C11        1.0     0.224526     0.305982     0.217809    Uiso  ? C	-0.209194
   C12        1.0     0.685600     0.204417     0.214346    Uiso  ? C	0.312103
   C13        1.0     0.786282     0.686568     0.784220    Uiso  ? C	-0.068852
   C14        1.0     0.301708     0.778441     0.782786    Uiso  ? C	-0.136685
   C15        1.0     0.430513     0.035614    -0.001914    Uiso  ? C	0.305412
   C16        1.0     0.963824     0.435125     0.008273    Uiso  ? C	-0.154216
   C17        1.0     0.305383     0.294171     0.110896    Uiso  ? C	0.644735
   C18        1.0     0.278830     0.268281     0.183117    Uiso  ? C	-0.002805
   C19        1.0     0.696245     0.291402     0.107989    Uiso  ? C	0.652125
   C20        1.0     0.719776     0.264068     0.179614    Uiso  ? C	-0.164763
   C21        1.0     0.276893     0.194151     0.716925    Uiso  ? C	-0.214601
   C22        1.0     0.813973     0.295323     0.713139    Uiso  ? C	0.310444
   C23        1.0     0.713222     0.811459     0.285353    Uiso  ? C	-0.070565
   C24        1.0     0.198765     0.720459     0.282248    Uiso  ? C	-0.137725
   C25        1.0     0.065489     0.464150     0.490228    Uiso  ? C	-0.152922
   C26        1.0     0.535843     0.069880     0.502601    Uiso  ? C	0.306940
   C27        1.0     0.194161     0.204991     0.611244    Uiso  ? C	0.644450
   C28        1.0     0.221137     0.230758     0.683421    Uiso  ? C	-0.001507
   C29        1.0     0.803834     0.207974     0.607160    Uiso  ? C	0.646986
   C30        1.0     0.780064     0.235415     0.678588    Uiso  ? C	-0.162661
   C31        1.0     0.776892     0.694151     0.216925    Uiso  ? C	-0.214602
   C32        1.0     0.313973     0.795323     0.213139    Uiso  ? C	0.310556
   C33        1.0     0.213222     0.311459     0.785353    Uiso  ? C	-0.070565
   C34        1.0     0.698765     0.220459     0.782248    Uiso  ? C	-0.137733
   C35        1.0     0.565489     0.964150     0.990228    Uiso  ? C	-0.152922
   C36        1.0     0.035843     0.569880     0.002601    Uiso  ? C	0.306940
   C37        1.0     0.694161     0.704991     0.111244    Uiso  ? C	0.644446
   C38        1.0     0.721137     0.730758     0.183421    Uiso  ? C	-0.001505
   C39        1.0     0.303834     0.707974     0.107160    Uiso  ? C	0.646974
   C40        1.0     0.280064     0.735415     0.178588    Uiso  ? C	-0.162635
   C41        1.0     0.288194     0.815833     0.283051    Uiso  ? C	-0.219000
   C42        1.0     0.802622     0.714440     0.287155    Uiso  ? C	0.319313
   C43        1.0     0.723256     0.199447     0.713913    Uiso  ? C	-0.066793
   C44        1.0     0.188136     0.290043     0.717427    Uiso  ? C	-0.150220
   C45        1.0     0.062074     0.538040     0.490754    Uiso  ? C	-0.074993
   C46        1.0     0.537668     0.938104     0.507881    Uiso  ? C	-0.074743
   C47        1.0     0.205485     0.804991     0.388759    Uiso  ? C	0.653048
   C48        1.0     0.232059     0.779437     0.316337    Uiso  ? C	-0.004518
   C49        1.0     0.793446     0.803980     0.392173    Uiso  ? C	0.647245
   C50        1.0     0.769717     0.775316     0.321167    Uiso  ? C	-0.164311
   C51        1.0     0.788194     0.315833     0.783051    Uiso  ? C	-0.218903
   C52        1.0     0.302622     0.214440     0.787155    Uiso  ? C	0.319314
   C53        1.0     0.223256     0.699447     0.213913    Uiso  ? C	-0.066811
   C54        1.0     0.688136     0.790043     0.217427    Uiso  ? C	-0.150221
   C55        1.0     0.562074     0.038040     0.990754    Uiso  ? C	-0.074994
   C56        1.0     0.037668     0.438104     0.007881    Uiso  ? C	-0.074743
   C57        1.0     0.705485     0.304991     0.888759    Uiso  ? C	0.653050
   C58        1.0     0.732059     0.279437     0.816337    Uiso  ? C	-0.004526
   C59        1.0     0.293446     0.303980     0.892173    Uiso  ? C	0.647248
   C60        1.0     0.269717     0.275316     0.821167    Uiso  ? C	-0.164313
   C61        1.0     0.711632     0.183630     0.284074    Uiso  ? C	-0.220079
   C62        1.0     0.199612     0.286074     0.288499    Uiso  ? C	0.322754
   C63        1.0     0.276947     0.799710     0.714636    Uiso  ? C	-0.064548
   C64        1.0     0.810926     0.707908     0.716074    Uiso  ? C	-0.155844
   C65        1.0     0.935090     0.460238     0.496494    Uiso  ? C	-0.228123
   C66        1.0     0.460470     0.065697     0.503781    Uiso  ? C	-0.227889
   C67        1.0     0.795629     0.193530     0.388879    Uiso  ? C	0.650899
   C68        1.0     0.768306     0.219589     0.316985    Uiso  ? C	-0.007090
   C69        1.0     0.207733     0.195354     0.392406    Uiso  ? C	0.644838
   C70        1.0     0.231357     0.223935     0.321330    Uiso  ? C	-0.166058
   C71        1.0     0.211632     0.683630     0.784074    Uiso  ? C	-0.220076
   C72        1.0     0.699612     0.786074     0.788499    Uiso  ? C	0.322755
   C73        1.0     0.776947     0.299710     0.214636    Uiso  ? C	-0.064552
   C74        1.0     0.310926     0.207908     0.216074    Uiso  ? C	-0.155846
   C75        1.0     0.435090     0.960238    -0.003506    Uiso  ? C	-0.228122
   C76        1.0     0.960470     0.565697     0.003781    Uiso  ? C	-0.227889
   C77        1.0     0.295629     0.693530     0.888879    Uiso  ? C	0.650899
   C78        1.0     0.268306     0.719589     0.816985    Uiso  ? C	-0.007091
   C79        1.0     0.707733     0.695354     0.892406    Uiso  ? C	0.644827
   C80        1.0     0.731358     0.723935     0.821330    Uiso  ? C	-0.166060
   C81        1.0     0.998001     0.653504     0.491330    Uiso  ? C	0.620042
   C82        1.0     0.996209     0.574769     0.493829    Uiso  ? C	-0.171060
   C83        1.0     0.498001     0.153504     0.991330    Uiso  ? C	0.620040
   C84        1.0     0.496209     0.074769     0.993829    Uiso  ? C	-0.171059
   C85        1.0     0.001591     0.345957     0.489987    Uiso  ? C	0.620133
   C86        1.0     0.000738     0.425585     0.492292    Uiso  ? C	-0.009607
   C87        1.0     0.501591     0.845957     0.989987    Uiso  ? C	0.620133
   C88        1.0     0.500738     0.925585     0.992292    Uiso  ? C	-0.009608
   C89        1.0     0.346189     0.999469     0.509337    Uiso  ? C	0.618070
   C90        1.0     0.425664     0.000133     0.507018    Uiso  ? C	-0.005516
   C91        1.0     0.846189     0.499469     0.009337    Uiso  ? C	0.618072
   C92        1.0     0.925664     0.500133     0.007018    Uiso  ? C	-0.005517
   C93        1.0     0.653097     0.001692     0.508302    Uiso  ? C	0.629350
   C94        1.0     0.574597     0.003883     0.505900    Uiso  ? C	-0.168899
   C95        1.0     0.153097     0.501692     0.008302    Uiso  ? C	0.629349
   C96        1.0     0.074597     0.503883     0.005900    Uiso  ? C	-0.168898
   H1         1.0     0.701503     0.852445     0.690102    Uiso  ? H	0.129045
   H2         1.0     0.308858     0.139981     0.311929    Uiso  ? H	0.111019
   H3         1.0     0.614922     0.120773     0.206449    Uiso  ? H	0.308700
   H4         1.0     0.617124     0.178213     0.130228    Uiso  ? H	0.317908
   H5         1.0     0.846123     0.305244     0.310066    Uiso  ? H	0.122629
   H6         1.0     0.434756     0.884658     0.510164    Uiso  ? H	0.121808
   H7         1.0     0.000715     0.778796     0.616108    Uiso  ? H	0.451872
   H8         1.0     0.201503     0.352445     0.190102    Uiso  ? H	0.129047
   H9         1.0     0.808858     0.639981     0.811930    Uiso  ? H	0.111017
   H10        1.0     0.114922     0.620773     0.706449    Uiso  ? H	0.308700
   H11        1.0     0.117124     0.678213     0.630228    Uiso  ? H	0.317907
   H12        1.0     0.346123     0.805244     0.810066    Uiso  ? H	0.122630
   H13        1.0     0.934756     0.384658     0.010164    Uiso  ? H	0.121807
   H14        1.0     0.500715     0.278796     0.116108    Uiso  ? H	0.451883
   H15        1.0     0.537567     0.179872     0.501450    Uiso  ? H	0.309928
   H16        1.0     0.622029     0.137861     0.502869    Uiso  ? H	0.327440
   H17        1.0     0.300547     0.148441     0.688460    Uiso  ? H	0.130639
   H18        1.0     0.689800     0.857134     0.313899    Uiso  ? H	0.112227
   H19        1.0     0.385537     0.878528     0.205918    Uiso  ? H	0.309750
   H20        1.0     0.383324     0.821089     0.129343    Uiso  ? H	0.319042
   H21        1.0     0.154839     0.693233     0.309918    Uiso  ? H	0.123049
   H22        1.0     0.116182     0.435486     0.487905    Uiso  ? H	0.117496
   H23        1.0     0.000796     0.221454     0.616462    Uiso  ? H	0.454929
   H24        1.0     0.320426     0.037023     0.001059    Uiso  ? H	0.312838
   H25        1.0     0.362177     0.121533     0.000199    Uiso  ? H	0.325712
   H26        1.0     0.800547     0.648441     0.188460    Uiso  ? H	0.130638
   H27        1.0     0.189800     0.357134     0.813899    Uiso  ? H	0.112228
   H28        1.0     0.885537     0.378528     0.705918    Uiso  ? H	0.309743
   H29        1.0     0.883324     0.321089     0.629343    Uiso  ? H	0.319036
   H30        1.0     0.654839     0.193233     0.809918    Uiso  ? H	0.123049
   H31        1.0     0.616182     0.935486     0.987905    Uiso  ? H	0.117497
   H32        1.0     0.500796     0.721454     0.116462    Uiso  ? H	0.454941
   H33        1.0     0.820426     0.537023     0.501059    Uiso  ? H	0.312837
   H34        1.0     0.862177     0.621533     0.500199    Uiso  ? H	0.325712
   H35        1.0     0.312515     0.860869     0.312072    Uiso  ? H	0.122915
   H36        1.0     0.699459     0.154077     0.685196    Uiso  ? H	0.121156
   H37        1.0     0.378474     0.134910     0.789570    Uiso  ? H	0.315697
   H38        1.0     0.376782     0.190338     0.867730    Uiso  ? H	0.318847
   H39        1.0     0.144394     0.317503     0.689667    Uiso  ? H	0.114248
   H40        1.0     0.110572     0.570423     0.488170    Uiso  ? H	0.118295
   H41        1.0     0.569853     0.889457     0.509605    Uiso  ? H	0.120546
   H42        1.0     0.222816     0.999792     0.385228    Uiso  ? H	0.453322
   H43        1.0     0.812515     0.360869     0.812072    Uiso  ? H	0.122918
   H44        1.0     0.199459     0.654077     0.185196    Uiso  ? H	0.121169
   H45        1.0     0.878474     0.634910     0.289570    Uiso  ? H	0.315698
   H46        1.0     0.876782     0.690338     0.367730    Uiso  ? H	0.318847
   H47        1.0     0.644394     0.817503     0.189667    Uiso  ? H	0.114247
   H48        1.0     0.610572     0.070423     0.988170    Uiso  ? H	0.118295
   H49        1.0     0.069853     0.389457     0.009605    Uiso  ? H	0.120545
   H50        1.0     0.722816     0.499792     0.885228    Uiso  ? H	0.453323
   H51        1.0     0.687302     0.138571     0.313055    Uiso  ? H	0.122232
   H52        1.0     0.300986     0.844815     0.685706    Uiso  ? H	0.124134
   H53        1.0     0.628004     0.869231     0.793803    Uiso  ? H	0.314457
   H54        1.0     0.629378     0.813664     0.871830    Uiso  ? H	0.320243
   H55        1.0     0.853580     0.679633     0.687380    Uiso  ? H	0.112168
   H56        1.0     0.886353     0.428050     0.498042    Uiso  ? H	0.124537
   H57        1.0     0.428387     0.114518     0.502446    Uiso  ? H	0.126517
   H58        1.0     0.777483     0.000617     0.385718    Uiso  ? H	0.454417
   H59        1.0     0.187302     0.638570     0.813055    Uiso  ? H	0.122230
   H60        1.0     0.800986     0.344815     0.185706    Uiso  ? H	0.124135
   H61        1.0     0.128004     0.369231     0.293803    Uiso  ? H	0.314456
   H62        1.0     0.129378     0.313664     0.371830    Uiso  ? H	0.320245
   H63        1.0     0.353580     0.179633     0.187380    Uiso  ? H	0.112169
   H64        1.0     0.386353     0.928050    -0.001958    Uiso  ? H	0.124537
   H65        1.0     0.928387     0.614518     0.002446    Uiso  ? H	0.126517
   H66        1.0     0.277483     0.500617     0.885718    Uiso  ? H	0.454418
   H67        1.0     0.037567     0.679872     0.001450    Uiso  ? H	0.309928
   H68        1.0     0.122029     0.637861     0.002869    Uiso  ? H	0.327440
   N1         1.0     0.629342     0.168162     0.183904    Uiso  ? N	-0.612863
   N2         1.0     0.067903     0.635231     0.997536    Uiso  ? N	-0.612322
   N3         1.0     0.129342     0.668163     0.683904    Uiso  ? N	-0.612862
   N4         1.0     0.567903     0.135231     0.497536    Uiso  ? N	-0.612322
   N5         1.0     0.369725     0.832043     0.182450    Uiso  ? N	-0.615025
   N6         1.0     0.365118     0.067339     0.004396    Uiso  ? N	-0.614687
   N7         1.0     0.869725     0.332043     0.682450    Uiso  ? N	-0.614974
   N8         1.0     0.865118     0.567339     0.504396    Uiso  ? N	-0.614686
   N9         1.0     0.356110     0.175507     0.818290    Uiso  ? N	-0.604001
   N10        1.0     0.856110     0.675507     0.318290    Uiso  ? N	-0.604002
   N11        1.0     0.647835     0.826268     0.820799    Uiso  ? N	-0.597249
   N12        1.0     0.147835     0.326268     0.320799    Uiso  ? N	-0.597246
   Ti1        1.0     0.922744     0.799476     0.493927    Uiso  ? Ti	2.000994
   Ti2        1.0     0.204833     0.921243     0.509367    Uiso  ? Ti	2.012525
   Ti3        1.0     0.422744     0.299476     0.993927    Uiso  ? Ti	2.000994
   Ti4        1.0     0.704833     0.421243     0.009367    Uiso  ? Ti	2.012526
   Ti5        1.0     0.078580     0.202496     0.493619    Uiso  ? Ti	2.000513
   Ti6        1.0     0.797642     0.077099     0.509570    Uiso  ? Ti	2.006522
   Ti7        1.0     0.578580     0.702496     0.993619    Uiso  ? Ti	2.000554
   Ti8        1.0     0.297642     0.577099     0.009570    Uiso  ? Ti	2.006522
   Ti9        1.0     0.077519     0.795732     0.489351    Uiso  ? Ti	2.011278
   Ti10       1.0     0.793625     0.922175     0.508886    Uiso  ? Ti	2.013478
   Ti11       1.0     0.577519     0.295732     0.989351    Uiso  ? Ti	2.011277
   Ti12       1.0     0.293625     0.422175     0.008886    Uiso  ? Ti	2.013478
   Ti13       1.0     0.923623     0.203122     0.489761    Uiso  ? Ti	2.014465
   Ti14       1.0     0.204478     0.076684     0.508636    Uiso  ? Ti	2.015635
   Ti15       1.0     0.423623     0.703122     0.989761    Uiso  ? Ti	2.014459
   Ti16       1.0     0.704478     0.576684     0.008636    Uiso  ? Ti	2.015635
